/*---------------------------------------------------------------------------*\
| =========                 |                                                 |
| \\      /  F ield         | OpenFOAM: The Open Source CFD Toolbox           |
|  \\    /   O peration     | Version:  v2012                                 |
|   \\  /    A nd           | Website:  www.openfoam.com                      |
|    \\/     M anipulation  |                                                 |
\*---------------------------------------------------------------------------*/
Build  : _7bdb509494-20201222 OPENFOAM=2012
Arch   : "LSB;label=32;scalar=64"
Exec   : snappyHexMesh -overwrite
Date   : Apr 13 2022
Time   : 16:29:52
Host   : DESKTOP-MP84EVR
PID    : 13591
I/O    : uncollated
Case   : /home/shi/github_pratice/thin_pipeflow_snappyHexMesh/snappy_pipe
nProcs : 1
trapFpe: Floating point exception trapping enabled (FOAM_SIGFPE).
fileModificationChecking : Monitoring run-time modified files using timeStampMaster (fileModificationSkew 5, maxFileModificationPolls 20)
allowSystemOperations : Allowing user-supplied system call operations

// * * * * * * * * * * * * * * * * * * * * * * * * * * * * * * * * * * * * * //
Create time

Create mesh for time = 0

Read mesh in = 0.21 s

Overall mesh bounding box  : (-1 -1 -1) (1 1 41)
Relative tolerance         : 1e-06
Absolute matching distance : 4.20951e-05

Reading refinement surfaces.
Read refinement surfaces in = 0 s

Reading refinement shells.
Read refinement shells in = 0 s

Setting refinement level of surface to be consistent with shells.
For geometry cylinder.stl detected 0 uncached triangles out of 476
Checked shell refinement in = 0.02 s

Reading features.
Read features in = 0 s


Determining initial surface intersections
-----------------------------------------

Edge intersection testing:
    Number of edges             : 124400
    Number of edges to retest   : 0
    Number of intersected edges : 0
Edge intersection testing:
    Number of edges             : 124400
    Number of edges to retest   : 124400
    Number of intersected edges : 4000
Calculated surface intersections in = 0.18 s

Initial mesh : cells:40000  faces:124400  points:44541
Cells per refinement level:
    0	40000

Adding patches for surface regions
----------------------------------

Patch Type                Region                        
----- ----                ------                        
cylinder:

3     wall                cylinder                      

Added patches in = 0 s

Edge intersection testing:
    Number of edges             : 124400
    Number of edges to retest   : 0
    Number of intersected edges : 4000
Selecting decompositionMethod none [1]

Refinement phase
----------------

Found point (0.05 0.05 1.5) in cell 2210 on processor 0

Surface refinement iteration 0
------------------------------

Marked for refinement due to surface intersection          : 6024 cells.
Marked for refinement due to curvature/regions             : 0 cells.
Determined cells to refine in = 0.06 s
Selected for refinement : 6024 cells (out of 40000)
Edge intersection testing:
    Number of edges             : 262940
    Number of edges to retest   : 177544
    Number of intersected edges : 15832
Refined mesh in = 0.49 s
After refinement surface refinement iteration 0 : cells:82168  faces:262940  points:98757
Cells per refinement level:
    0	33976
    1	48192

Surface refinement iteration 1
------------------------------

Marked for refinement due to surface intersection          : 23192 cells.
Marked for refinement due to curvature/regions             : 0 cells.
Determined cells to refine in = 0.02 s
Selected for refinement : 24816 cells (out of 82168)
Edge intersection testing:
    Number of edges             : 831512
    Number of edges to retest   : 739580
    Number of intersected edges : 63328
Refined mesh in = 1.88 s
After refinement surface refinement iteration 1 : cells:255880  faces:831512  points:319919
Cells per refinement level:
    0	32352
    1	37992
    2	185536

Surface refinement iteration 2
------------------------------

Marked for refinement due to surface intersection          : 91456 cells.
Marked for refinement due to curvature/regions             : 0 cells.
Determined cells to refine in = 0.07 s
Selected for refinement : 96856 cells (out of 255880)
Edge intersection testing:
    Number of edges             : 3055568
    Number of edges to retest   : 2868352
    Number of intersected edges : 253920
Refined mesh in = 7.27 s
After refinement surface refinement iteration 2 : cells:933872  faces:3055568  points:1188003
Cells per refinement level:
    0	32320
    1	32848
    2	137312
    3	731392

Surface refinement iteration 3
------------------------------

Marked for refinement due to surface intersection          : 216 cells.
Marked for refinement due to curvature/regions             : 816 cells.
Determined cells to refine in = 0.97 s
Selected for refinement : 1336 cells (out of 933872)
Edge intersection testing:
    Number of edges             : 3089504
    Number of edges to retest   : 56712
    Number of intersected edges : 256944
Refined mesh in = 3.63 s
After refinement surface refinement iteration 3 : cells:943224  faces:3089504  points:1204059
Cells per refinement level:
    0	32304
    1	32848
    2	137960
    3	733584
    4	6528

Surface refinement iteration 4
------------------------------

Marked for refinement due to surface intersection          : 16 cells.
Marked for refinement due to curvature/regions             : 1360 cells.
Determined cells to refine in = 0.97 s
Selected for refinement : 1936 cells (out of 943224)
Edge intersection testing:
    Number of edges             : 3139616
    Number of edges to retest   : 85184
    Number of intersected edges : 263976
Refined mesh in = 3.47 s
After refinement surface refinement iteration 4 : cells:956776  faces:3139616  points:1228043
Cells per refinement level:
    0	32304
    1	32816
    2	138136
    3	733344
    4	12624
    5	7552

Surface refinement iteration 5
------------------------------

Marked for refinement due to surface intersection          : 0 cells.
Marked for refinement due to curvature/regions             : 1112 cells.
Determined cells to refine in = 1.01 s
Selected for refinement : 1808 cells (out of 956776)
Edge intersection testing:
    Number of edges             : 3183608
    Number of edges to retest   : 92472
    Number of intersected edges : 268024
Refined mesh in = 3.42 s
After refinement surface refinement iteration 5 : cells:969432  faces:3183608  points:1247131
Cells per refinement level:
    0	32288
    1	32864
    2	138552
    3	734544
    4	16464
    5	14720

Surface refinement iteration 6
------------------------------

Marked for refinement due to surface intersection          : 0 cells.
Marked for refinement due to curvature/regions             : 232 cells.
Determined cells to refine in = 1.01 s
Selected for refinement : 408 cells (out of 969432)
Edge intersection testing:
    Number of edges             : 3193256
    Number of edges to retest   : 29360
    Number of intersected edges : 268192
Refined mesh in = 3.08 s
After refinement surface refinement iteration 6 : cells:972288  faces:3193256  points:1251179
Cells per refinement level:
    0	32288
    1	32864
    2	138520
    3	734656
    4	17384
    5	16576

Surface refinement iteration 7
------------------------------

Marked for refinement due to surface intersection          : 0 cells.
Marked for refinement due to curvature/regions             : 0 cells.
Determined cells to refine in = 1.01 s
Selected for refinement : 0 cells (out of 972288)
Stopping refining since too few cells selected.


Removing mesh beyond surface intersections
------------------------------------------

Setting cellZones according to locationsInMesh:
Location : (0.05 0.05 1.5)
    cellZone : none

For cellZone none found point (0.05 0.05 1.5) in global region 1 out of 2 regions.
Keeping all cells containing inside points
Selected for keeping : 972288 cells.
Edge intersection testing:
    Number of edges             : 3193256
    Number of edges to retest   : 0
    Number of intersected edges : 268192
Setting cellZones according to locationsInMesh:
Location : (0.05 0.05 1.5)
    cellZone : none

For cellZone none found point (0.05 0.05 1.5) in global region 1 out of 2 regions.
Keeping all cells containing inside points
Selected for keeping : 712056 cells.
Edge intersection testing:
    Number of edges             : 2419844
    Number of edges to retest   : 275376
    Number of intersected edges : 268192

Shell refinement iteration 0
----------------------------

Marked for refinement due to distance to explicit features : 0 cells.
Marked for refinement due to refinement shells             : 0 cells.
Determined cells to refine in = 8.35 s
Selected for internal refinement : 36278 cells (out of 712056)
Edge intersection testing:
    Number of edges             : 3186593
    Number of edges to retest   : 1859321
    Number of intersected edges : 271216
Refined mesh in = 5.82 s
After refinement shell refinement iteration 0 : cells:966002  faces:3186593  points:1256860
Cells per refinement level:
    0	11192
    1	17056
    2	87722
    3	799368
    4	20472
    5	30192

Shell refinement iteration 1
----------------------------

Marked for refinement due to distance to explicit features : 0 cells.
Marked for refinement due to refinement shells             : 0 cells.
Determined cells to refine in = 0.86 s
Selected for internal refinement : 6002 cells (out of 966002)
Edge intersection testing:
    Number of edges             : 3313052
    Number of edges to retest   : 458127
    Number of intersected edges : 273392
Refined mesh in = 4.35 s
After refinement shell refinement iteration 1 : cells:1008016  faces:3313052  points:1299227
Cells per refinement level:
    0	11192
    1	15552
    2	96920
    3	821552
    4	23200
    5	39600

Shell refinement iteration 2
----------------------------

Marked for refinement due to distance to explicit features : 0 cells.
Marked for refinement due to refinement shells             : 0 cells.
Determined cells to refine in = 0.89 s
Selected for internal refinement : 648 cells (out of 1008016)
Edge intersection testing:
    Number of edges             : 3327524
    Number of edges to retest   : 47304
    Number of intersected edges : 273824
Refined mesh in = 3.97 s
After refinement shell refinement iteration 2 : cells:1012552  faces:3327524  points:1304595
Cells per refinement level:
    0	11192
    1	15552
    2	96920
    3	821464
    4	23344
    5	44080

Shell refinement iteration 3
----------------------------

Marked for refinement due to distance to explicit features : 0 cells.
Marked for refinement due to refinement shells             : 0 cells.
Determined cells to refine in = 0.91 s
Selected for internal refinement : 432 cells (out of 1012552)
Edge intersection testing:
    Number of edges             : 3337292
    Number of edges to retest   : 29840
    Number of intersected edges : 274208
Refined mesh in = 3.92 s
After refinement shell refinement iteration 3 : cells:1015576  faces:3337292  points:1308315
Cells per refinement level:
    0	11192
    1	15552
    2	96920
    3	821432
    4	23200
    5	47280

Shell refinement iteration 4
----------------------------

Marked for refinement due to distance to explicit features : 0 cells.
Marked for refinement due to refinement shells             : 0 cells.
Determined cells to refine in = 0.89 s
Selected for internal refinement : 288 cells (out of 1015576)
Edge intersection testing:
    Number of edges             : 3343868
    Number of edges to retest   : 20960
    Number of intersected edges : 274544
Refined mesh in = 3.84 s
After refinement shell refinement iteration 4 : cells:1017592  faces:3343868  points:1310811
Cells per refinement level:
    0	11192
    1	15552
    2	96920
    3	821432
    4	22912
    5	49584

Shell refinement iteration 5
----------------------------

Marked for refinement due to distance to explicit features : 0 cells.
Marked for refinement due to refinement shells             : 0 cells.
